# generated using pymatgen
data_Na2O2
_symmetry_space_group_name_H-M   P-62m
_cell_length_a   6.13536775
_cell_length_b   6.13536775
_cell_length_c   4.42487033
_cell_angle_alpha   90.00000000
_cell_angle_beta   90.00000000
_cell_angle_gamma   120.00000000
_symmetry_Int_Tables_number   189
_chemical_formula_structural   Na2O2
_chemical_formula_sum   'Na6 O6'
_cell_volume   144.24885647
_cell_formula_units_Z   3
loop_
 _symmetry_equiv_pos_site_id
 _symmetry_equiv_pos_as_xyz
  1  'x, y, z'
  2  '-x+y, -x, -z'
  3  '-y, x-y, z'
  4  'x, y, -z'
  5  '-x+y, -x, z'
  6  '-y, x-y, -z'
  7  'y, x, z'
  8  '-x, -x+y, -z'
  9  'x-y, -y, z'
  10  'y, x, -z'
  11  '-x, -x+y, z'
  12  'x-y, -y, -z'
loop_
 _atom_type_symbol
 _atom_type_oxidation_number
  Na+  1.0
  O-  -1.0
loop_
 _atom_site_type_symbol
 _atom_site_label
 _atom_site_symmetry_multiplicity
 _atom_site_fract_x
 _atom_site_fract_y
 _atom_site_fract_z
 _atom_site_occupancy
  Na+  Na0  3  0.00000000  0.36572569  0.00000000  1
  Na+  Na1  3  0.00000000  0.70003756  0.50000000  1
  O-  O2  4  0.33333333  0.66666667  0.32555400  1
  O-  O3  2  0.00000000  0.00000000  0.17232716  1
